AMOSTRA/TAI/Linhas.dss
! ==========================================================
! LINHAS — geradas de SSDMT
! Barras = PAC_1 / PAC_2 da BDGD (preservados)
! ==========================================================
New Line.27384_13855922 Bus1=27384-11684274.1.2.3 Bus2=27384-13064163.1.2.3 LineCode=CND_M30_42_3F Length=11.64 Units=m
New Line.27384_13855925 Bus1=27384-10411313.1.2.3 Bus2=27384-11684277.1.2.3 LineCode=CND_M30_32_3F Length=76.77 Units=m
New Line.27384_13855926 Bus1=27384-11684277c.1.2.3 Bus2=27384-10412793.1.2.3 LineCode=CND_M30_33_3F Length=109.76 Units=m
New Line.27384_13855927 Bus1=27384-11684278.1.2.3 Bus2=27384-10413533.1.2.3 LineCode=CND_M30_32_3F Length=32.56 Units=m
New Line.27384_13855929 Bus1=27384-11684277.1.2.3 Bus2=27384-11684278.1.2.3 LineCode=CND_M30_32_3F Length=33.53 Units=m
New Line.27385_9562407 Bus1=27385-8231886.2 Bus2=27385-8232716.2 LineCode=CND_M10_89_1F Length=135.19 Units=m
New Line.27385_9562408 Bus1=27385-8232716c.2 Bus2=27385-8230996.2 LineCode=CND_M10_89_1F Length=112.23 Units=m
New Line.27385_9562411 Bus1=27385-8231898.2 Bus2=27385-8233851.2 LineCode=CND_M10_89_1F Length=135.51 Units=m
New Line.27385_9562278 Bus1=27385-8231884.2 Bus2=27385-8232714.2 LineCode=CND_M10_89_1F Length=62.14 Units=m
New Line.27385_9562279 Bus1=27385-8232714.2 Bus2=27385-8232726.2 LineCode=CND_M10_89_1F Length=62.06 Units=m
New Line.27385_9562285 Bus1=27385-8231908.2 Bus2=27385-8233863.2 LineCode=CND_M10_89_1F Length=111.19 Units=m
New Line.27385_9562293 Bus1=27385-8231340.2 Bus2=27385-8231013.2 LineCode=CND_M10_89_1F Length=106.79 Units=m
New Line.27385_9562295 Bus1=27385-8233847.2 Bus2=27385-8233530.2 LineCode=CND_M10_89_1F Length=118.41 Units=m
New Line.27385_9562297 Bus1=27385-8234005.2 Bus2=27385-8231353.2 LineCode=CND_M10_89_1F Length=118.74 Units=m
New Line.27385_9562301 Bus1=27385-8231354.2 Bus2=27385-8232736.2 LineCode=CND_M10_89_1F Length=88.91 Units=m
New Line.27385_9562302 Bus1=27385-8232736.2 Bus2=27385-8233381.2 LineCode=CND_M10_89_1F Length=48.25 Units=m
New Line.27385_9562305 Bus1=27385-8231016.2 Bus2=27385-8232294.2 LineCode=CND_M10_89_1F Length=104.33 Units=m
New Line.27385_9562308 Bus1=27385-8231358c.2 Bus2=27385-8233383.2 LineCode=CND_M10_89_1F Length=143.28 Units=m
New Line.27385_9562371 Bus1=27385-8233443.2 Bus2=27385-8231988.2 LineCode=CND_M10_33_1F Length=125.55 Units=m
New Line.27385_9562373 Bus1=27385-8233085.2 Bus2=27385-8232805.2 LineCode=CND_M10_33_1F Length=84.90 Units=m
New Line.27385_9562374 Bus1=27385-8233442.2 Bus2=27385-8234034.2 LineCode=CND_M10_33_1F Length=69.18 Units=m
New Line.27385_9562375 Bus1=27385-8234034.2 Bus2=27385-8232104.2 LineCode=CND_M10_33_1F Length=96.62 Units=m
New Line.27385_9562376 Bus1=27385-8231581.2 Bus2=27385-8231781.2 LineCode=CND_M10_89_1F Length=122.81 Units=m
New Line.27385_9562378 Bus1=27385-8232464.2 Bus2=27385-8232825.2 LineCode=CND_M10_89_1F Length=133.06 Units=m
New Line.27385_9562379 Bus1=27385-8231089.2 Bus2=27385-8233113.2 LineCode=CND_M10_89_1F Length=128.03 Units=m
New Line.27385_9562386 Bus1=27385-8233110.2 Bus2=27385-8234050.2 LineCode=CND_M10_89_1F Length=124.85 Units=m
New Line.27385_9562387 Bus1=27385-8234050.2 Bus2=27385-8231779.2 LineCode=CND_M10_89_1F Length=122.28 Units=m
New Line.27385_9562388 Bus1=27385-8233109.2 Bus2=27385-8233108.2 LineCode=CND_M10_89_1F Length=141.18 Units=m
New Line.27385_9562389 Bus1=27385-8231778.2 Bus2=27385-8231777.2 LineCode=CND_M10_89_1F Length=133.07 Units=m
New Line.27385_9562391 Bus1=27385-8231342.2 Bus2=27385-8232722.2 LineCode=CND_M10_89_1F Length=125.77 Units=m
New Line.27385_9562393 Bus1=27385-8232720.2 Bus2=27385-8233850.2 LineCode=CND_M10_89_1F Length=119.72 Units=m
New Line.27385_9562398 Bus1=27385-8231890.2 Bus2=27385-8233380.2 LineCode=CND_M10_89_1F Length=121.75 Units=m
New Line.27385_9562400 Bus1=27385-8230995.2 Bus2=27385-8230994.2 LineCode=CND_M10_89_1F Length=98.72 Units=m
New Line.27385_9562401 Bus1=27385-8230994.2 Bus2=27385-8231889.2 LineCode=CND_M10_89_1F Length=105.48 Units=m
New Line.27385_9562405 Bus1=27385-8230998.2 Bus2=27385-8230997.2 LineCode=CND_M10_89_1F Length=128.19 Units=m
New Line.27385_9562465 Bus1=27385-8232733.2 Bus2=27385-8233682.2 LineCode=CND_M10_89_1F Length=121.39 Units=m
New Line.27385_9562466 Bus1=27385-8231828.1.2.3 Bus2=27385-8231366.1.2.3 LineCode=CND_M30_32_3F Length=102.27 Units=m
New Line.27385_9562467 Bus1=27385-8231366.1.2.3 Bus2=27385-8232306.1.2.3 LineCode=CND_M30_32_3F Length=101.44 Units=m
New Line.27385_9562469 Bus1=27385-8231926.1.2.3 Bus2=27385-8231027.1.2.3 LineCode=CND_M30_32_3F Length=100.87 Units=m
New Line.27385_9562471 Bus1=27385-8231027.1.2.3 Bus2=27385-8231925.1.2.3 LineCode=CND_M30_32_3F Length=102.09 Units=m
New Line.27385_9562472 Bus1=27385-8231925.1.2.3 Bus2=27385-8231026.1.2.3 LineCode=CND_M30_32_3F Length=99.69 Units=m
New Line.27385_9562473 Bus1=27385-8231026c.1.2.3 Bus2=27385-8231924.1.2.3 LineCode=CND_M30_33_3F Length=65.28 Units=m
New Line.27385_9562474 Bus1=27385-8231924.1.2.3 Bus2=27385-8232543.1.2.3 LineCode=CND_M30_33_3F Length=72.34 Units=m
New Line.27385_9562475 Bus1=27385-8231026.1.2.3 Bus2=27385-8234020.1.2.3 LineCode=CND_M30_32_3F Length=102.09 Units=m
New Line.27385_9562476 Bus1=27385-8234020.1.2.3 Bus2=27385-8231365.1.2.3 LineCode=CND_M30_32_3F Length=76.68 Units=m
New Line.27385_9562345 Bus1=27385-8233113.2 Bus2=27385-8234053.2 LineCode=CND_M10_89_1F Length=118.74 Units=m
New Line.27385_9562347 Bus1=27385-8233112c.2 Bus2=27385-8232911.2 LineCode=CND_M10_89_1F Length=142.59 Units=m
New Line.27385_9562349 Bus1=27385-8231779.2 Bus2=27385-8232007.2 LineCode=CND_M10_89_1F Length=135.19 Units=m
New Line.27385_9562350 Bus1=27385-8232007.2 Bus2=27385-8233109.2 LineCode=CND_M10_89_1F Length=122.86 Units=m
New Line.27385_9562352 Bus1=27385-8232006.2 Bus2=27385-8232261.2 LineCode=CND_M10_89_1F Length=125.91 Units=m
New Line.27385_9562431 Bus1=27385-8231006.2 Bus2=27385-8233675.2 LineCode=CND_M10_89_1F Length=108.98 Units=m
New Line.27385_9562432 Bus1=27385-8233864.2 Bus2=27385-8232728.2 LineCode=CND_M10_89_1F Length=100.96 Units=m
New Line.27385_9562436 Bus1=27385-8233676.2 Bus2=27385-8231008.2 LineCode=CND_M10_89_1F Length=137.33 Units=m
New Line.27385_9562442 Bus1=27385-8233678.2 Bus2=27385-8233056.2 LineCode=CND_M10_89_1F Length=93.24 Units=m
New Line.27385_9562446 Bus1=27385-8233679.2 Bus2=27385-8231009.2 LineCode=CND_M10_89_1F Length=132.16 Units=m
New Line.27385_9562450 Bus1=27385-8233681.2 Bus2=27385-8232731.2 LineCode=CND_M10_89_1F Length=132.72 Units=m
New Line.27385_9562457 Bus1=27385-8233848.2 Bus2=27385-8233847.2 LineCode=CND_M10_89_1F Length=121.38 Units=m
New Line.27385_9562459 Bus1=27385-8231014.2 Bus2=27385-8233685.2 LineCode=CND_M10_89_1F Length=129.92 Units=m
New Line.27385_9562460 Bus1=27385-8234006.2 Bus2=27385-8231016.2 LineCode=CND_M10_89_1F Length=98.24 Units=m
New Line.27385_9562487 Bus1=27385-8231169.1.2.3 Bus2=27385-11604097.1.2.3 LineCode=CND_M30_32_3F Length=45.91 Units=m
New Line.27385_9562489 Bus1=27385-8232086c.1.2.3 Bus2=27385-8232106.1.2.3 LineCode=CND_M30_33_3F Length=29.34 Units=m
New Line.27385_9562490 Bus1=27385-8232086.1.2.3 Bus2=27385-8233723.1.2.3 LineCode=CND_M30_32_3F Length=105.96 Units=m
New Line.27385_9562493 Bus1=27385-8231168.1.2.3 Bus2=27385-8231167.1.2.3 LineCode=CND_M30_32_3F Length=98.93 Units=m
New Line.27385_9562496 Bus1=27385-8231799.1.2.3 Bus2=27385-8234070.1.2.3 LineCode=CND_M30_32_3F Length=102.15 Units=m
New Line.27385_9562502 Bus1=27385-8231794.1.2.3 Bus2=27385-8233873.1.2.3 LineCode=CND_M30_32_3F Length=37.96 Units=m
New Line.27385_9562503 Bus1=27385-8233873.1.2.3 Bus2=27385-8231130.1.2.3 LineCode=CND_M30_32_3F Length=46.47 Units=m
New Line.27385_9562504 Bus1=27385-8234068.1.2.3 Bus2=27385-8231102.1.2.3 LineCode=CND_M30_32_3F Length=43.69 Units=m
New Line.27385_9562509 Bus1=27385-8233168.1.2.3 Bus2=27385-8232089.1.2.3 LineCode=CND_M30_32_3F Length=46.93 Units=m
New Line.27385_9562511 Bus1=27385-8231165.1.2.3 Bus2=27385-8232495.1.2.3 LineCode=CND_M30_32_3F Length=28.70 Units=m
New Line.27385_9562512 Bus1=27385-8231365c.1.2.3 Bus2=27385-8232305.1.2.3 LineCode=CND_M30_33_3F Length=35.91 Units=m
New Line.27385_9562515 Bus1=27385-8233693.1.2.3 Bus2=27385-8233911.1.2.3 LineCode=CND_M30_33_3F Length=29.69 Units=m
New Line.27385_9562517 Bus1=27385-8233070.1.2.3 Bus2=27385-8233515.1.2.3 LineCode=CND_M30_29_3F Length=27.80 Units=m
New Line.27385_9562526 Bus1=27385-8231592.1.2.3 Bus2=27385-8231799.1.2.3 LineCode=CND_M30_32_3F Length=103.00 Units=m
New Line.27385_9562532 Bus1=27385-8232839.1.2.3 Bus2=27385-8232469.1.2.3 LineCode=CND_M30_32_3F Length=44.96 Units=m
New Line.27385_9562534 Bus1=27385-8231590.1.2.3 Bus2=27385-8231104.1.2.3 LineCode=CND_M30_32_3F Length=43.03 Units=m
New Line.27385_9562412 Bus1=27385-8233852.2 Bus2=27385-8231899.2 LineCode=CND_M10_89_1F Length=175.40 Units=m
New Line.27385_9562413 Bus1=27385-8231899.2 Bus2=27385-8231343.2 LineCode=CND_M10_89_1F Length=137.72 Units=m
New Line.27385_9562414 Bus1=27385-8231343.2 Bus2=27385-8233670.2 LineCode=CND_M10_89_1F Length=138.78 Units=m
New Line.27385_9562416 Bus1=27385-8231003.2 Bus2=27385-8232724.2 LineCode=CND_M10_89_1F Length=110.97 Units=m
New Line.27385_9562417 Bus1=27385-8233050.2 Bus2=27385-8233051.2 LineCode=CND_M10_89_1F Length=95.34 Units=m
New Line.27385_9562419 Bus1=27385-8231005.2 Bus2=27385-8231902.2 LineCode=CND_M10_89_1F Length=129.03 Units=m
New Line.27385_9562423 Bus1=27385-8232725.2 Bus2=27385-8233853.2 LineCode=CND_M10_89_1F Length=128.40 Units=m
New Line.27385_9562424 Bus1=27385-8233853.2 Bus2=27385-8232290.2 LineCode=CND_M10_89_1F Length=127.04 Units=m
New Line.27385_9562427 Bus1=27385-8233672.2 Bus2=27385-8231903.2 LineCode=CND_M10_89_1F Length=103.25 Units=m
New Line.27385_9562479 Bus1=27385-8231365.1.2.3 Bus2=27385-8232753.1.2.3 LineCode=CND_M30_32_3F Length=87.15 Units=m
New Line.27385_9562483 Bus1=27385-8233164.1.2.3 Bus2=27385-8231662.1.2.3 LineCode=CND_M30_29_3F Length=28.91 Units=m
New Line.27385_9562484 Bus1=27385-8231662.1.2.3 Bus2=27385-8232905.1.2.3 LineCode=CND_M30_29_3F Length=23.67 Units=m
New Line.15604_14052371 Bus1=15604-11876996.3 Bus2=15604-11876997.3 LineCode=CND_M10_89_1F Length=121.07 Units=m
New Line.15604_14052373 Bus1=15604-11877000.3 Bus2=15604-11877001.3 LineCode=CND_M10_89_1F Length=121.26 Units=m
New Line.15604_14052376 Bus1=15604-11877004.3 Bus2=15604-11877005.3 LineCode=CND_M10_89_1F Length=124.26 Units=m
New Line.15604_14052379 Bus1=15604-11876999.3 Bus2=15604-11877007.3 LineCode=CND_M10_89_1F Length=89.58 Units=m
New Line.15604_14052381 Bus1=15604-11877001.3 Bus2=15604-11877009.3 LineCode=CND_M10_89_1F Length=141.84 Units=m
New Line.15604_14052382 Bus1=15604-11877009.3 Bus2=15604-11877010.3 LineCode=CND_M10_89_1F Length=128.83 Units=m
New Line.15604_14052383 Bus1=15604-11877010.3 Bus2=15604-11877002.3 LineCode=CND_M10_89_1F Length=88.79 Units=m
New Line.15604_14052384 Bus1=15604-11877003.3 Bus2=15604-11877011.3 LineCode=CND_M10_89_1F Length=177.80 Units=m
New Line.15604_14052388 Bus1=15604-11877011.3 Bus2=15604-11877015.3 LineCode=CND_M10_89_1F Length=128.76 Units=m
New Line.15604_14052389 Bus1=15604-11877015c.3 Bus2=15604-11877016.3 LineCode=CND_M10_89_1F Length=104.90 Units=m
New Line.16284_13135240 Bus1=16284-11065785.1 Bus2=16284-11070142.1 LineCode=CND_M10_89_1F Length=114.17 Units=m
New Line.16284_13135241 Bus1=16284-11070142.1 Bus2=16284-11063611.1 LineCode=CND_M10_89_1F Length=121.69 Units=m
New Line.16284_13135245 Bus1=16284-11067097.3.1 Bus2=16284-11063609.3.1 LineCode=CND_M20_89_2F Length=107.62 Units=m
New Line.16284_13135246 Bus1=16284-11063593.3.1 Bus2=16284-11064023.3.1 LineCode=CND_M20_89_2F Length=95.30 Units=m
New Line.16284_13135247 Bus1=16284-11071741.3.1 Bus2=16284-11071743.3.1 LineCode=CND_M20_89_2F Length=95.58 Units=m
New Line.16284_13135249 Bus1=16284-11070070.3.1 Bus2=16284-11070071.3.1 LineCode=CND_M20_89_2F Length=106.41 Units=m
New Line.16284_13135252 Bus1=16284-11066673.3 Bus2=16284-11071280.3 LineCode=CND_M10_89_1F Length=119.85 Units=m
New Line.16284_13135253 Bus1=16284-11064478.3 Bus2=16284-11063855.3 LineCode=CND_M10_89_1F Length=121.57 Units=m
New Line.16284_13135254 Bus1=16284-11066674.3 Bus2=16284-11064482.3 LineCode=CND_M10_89_1F Length=61.63 Units=m
New Line.16284_13135258 Bus1=16284-11069716.3 Bus2=16284-11062240.3 LineCode=CND_M10_89_1F Length=112.05 Units=m
New Line.16284_13135261 Bus1=16284-11069718.3 Bus2=16284-11066679.3 LineCode=CND_M10_89_1F Length=85.74 Units=m
New Line.16284_13135265 Bus1=16284-11067360.3 Bus2=16284-11064982.3 LineCode=CND_M10_89_1F Length=42.35 Units=m
New Line.16284_13135266 Bus1=16284-11062942.2 Bus2=16284-11068878.2 LineCode=CND_M10_89_1F Length=87.85 Units=m
New Line.16284_13135270 Bus1=16284-11070278.1 Bus2=16284-11064502.1 LineCode=CND_M10_89_1F Length=50.79 Units=m
New Line.16284_13135271 Bus1=16284-11061972.1.2.3 Bus2=16284-11064679.1.2.3 LineCode=CND_M30_40_3F Length=113.62 Units=m
New Line.16284_13135272 Bus1=16284-11064677.1.2.3 Bus2=16284-11068346.1.2.3 LineCode=CND_M30_40_3F Length=54.36 Units=m
New Line.16284_13135341 Bus1=16284-11071809.2 Bus2=16284-11063748.2 LineCode=CND_M10_89_1F Length=60.03 Units=m
New Line.16284_13135343 Bus1=16284-11063353.2 Bus2=16284-11063368.2 LineCode=CND_M10_89_1F Length=138.01 Units=m
New Line.16284_13135344 Bus1=16284-11071722.2 Bus2=16284-11063369.2 LineCode=CND_M10_89_1F Length=117.85 Units=m
New Line.16284_13135346 Bus1=16284-11070052.2 Bus2=16284-11061117.2 LineCode=CND_M10_89_1F Length=129.15 Units=m
New Line.16284_13135353 Bus1=16284-11065743.2 Bus2=16284-11062755.2 LineCode=CND_M10_89_1F Length=117.19 Units=m
New Line.16284_13135357 Bus1=16284-11071575.2 Bus2=16284-11068409.2 LineCode=CND_M10_89_1F Length=120.44 Units=m
New Line.16284_13135360 Bus1=16284-11061106c.2 Bus2=16284-11071890.2 LineCode=CND_M10_33_1F Length=46.65 Units=m
New Line.16284_13135361 Bus1=16284-11071890.2 Bus2=16284-11061719.2 LineCode=CND_M10_89_1F Length=84.75 Units=m
New Line.16284_13135362 Bus1=16284-11062749.2 Bus2=16284-11070049.2 LineCode=CND_M10_89_1F Length=111.98 Units=m
New Line.16284_13135363 Bus1=16284-11062750.2 Bus2=16284-11070050.2 LineCode=CND_M10_89_1F Length=137.76 Units=m
New Line.16284_13135364 Bus1=16284-11062751.2 Bus2=16284-11068417.2 LineCode=CND_M10_89_1F Length=127.33 Units=m
New Line.16284_13135367 Bus1=16284-11063358.2 Bus2=16284-11062735.2 LineCode=CND_M10_89_1F Length=135.38 Units=m
New Line.16284_13135236 Bus1=16284-11071747.3.1 Bus2=16284-11071584.3.1 LineCode=CND_M20_89_2F Length=113.73 Units=m
New Line.16284_13135415 Bus1=16284-11062666.1.2.3 Bus2=16284-11067353.1.2.3 LineCode=CND_M30_40_3F Length=114.83 Units=m
New Line.16284_13135416 Bus1=16284-11067353c.1.2.3 Bus2=16284-11066164.1.2.3 LineCode=CND_M30_40_3F Length=69.34 Units=m
New Line.16284_13135417 Bus1=16284-11067353.1.2.3 Bus2=16284-11071889.1.2.3 LineCode=CND_M30_40_3F Length=86.28 Units=m
New Line.16284_13135420 Bus1=16284-11070346.1.2.3 Bus2=16284-11810769.1.2.3 LineCode=CND_M30_89_3F Length=88.27 Units=m
New Line.16284_13135430 Bus1=16284-11061366.1 Bus2=16284-11070360.1 LineCode=CND_M10_89_1F Length=111.04 Units=m
New Line.16284_13135432 Bus1=16284-11065848.1 Bus2=16284-11068907.1 LineCode=CND_M10_89_1F Length=94.12 Units=m
New Line.16284_13135433 Bus1=16284-11068907.1 Bus2=16284-11061365.1 LineCode=CND_M10_89_1F Length=86.42 Units=m
New Line.16284_13135301 Bus1=16284-11061130.3.1 Bus2=16284-11061148.3.1 LineCode=CND_M20_89_2F Length=74.31 Units=m
New Line.16284_13135302 Bus1=16284-11070069.3.1 Bus2=16284-11061130.3.1 LineCode=CND_M20_89_2F Length=79.98 Units=m
New Line.16284_13135303 Bus1=16284-11061145.3.1 Bus2=16284-11070068.3.1 LineCode=CND_M20_89_2F Length=101.72 Units=m
New Line.16284_13135306 Bus1=16284-11061174.1 Bus2=16284-11071617.1 LineCode=CND_M10_89_1F Length=103.46 Units=m
New Line.16284_13135308 Bus1=16284-11062786.1 Bus2=16284-11068691.1 LineCode=CND_M10_89_1F Length=87.16 Units=m
New Line.16284_13135310 Bus1=16284-11070150.1.2.3 Bus2=16284-12480467.1.2.3 LineCode=CND_M30_89_3F Length=46.09 Units=m
New Line.16284_13135311 Bus1=16284-11071752.1.2.3 Bus2=16284-11068612.1.2.3 LineCode=CND_M30_89_3F Length=78.92 Units=m
New Line.16284_13135313 Bus1=16284-11063604.1.2.3 Bus2=16284-11071751.1.2.3 LineCode=CND_M30_89_3F Length=171.78 Units=m
New Line.16284_13135314 Bus1=16284-11064037.1.2.3 Bus2=16284-11061152.1.2.3 LineCode=CND_M30_89_3F Length=112.28 Units=m
New Line.16284_13135315 Bus1=16284-11070116.1.2.3 Bus2=16284-11068577.1.2.3 LineCode=CND_M30_89_3F Length=319.15 Units=m
New Line.16284_13135317 Bus1=16284-11061166.1.2.3 Bus2=16284-11063602.1.2.3 LineCode=CND_M30_89_3F Length=113.67 Units=m
New Line.16284_13135490 Bus1=16284-11064872.1 Bus2=16284-11070518.1 LineCode=CND_M10_89_1F Length=114.27 Units=m
New Line.16284_13135493 Bus1=16284-11071959.1 Bus2=16284-11067497.1 LineCode=CND_M10_89_1F Length=108.09 Units=m
New Line.16284_13135495 Bus1=16284-11067496.1 Bus2=16284-11071959.1 LineCode=CND_M10_89_1F Length=106.04 Units=m
New Line.16284_13135498 Bus1=16284-11069043.1 Bus2=16284-11070517.1 LineCode=CND_M10_89_1F Length=118.03 Units=m
New Line.16284_13135371 Bus1=16284-11065740.2 Bus2=16284-11062739.2 LineCode=CND_M10_89_1F Length=135.84 Units=m
New Line.16284_13135374 Bus1=16284-11060824.1.2.3 Bus2=16284-11066131.1.2.3 LineCode=CND_M30_89_3F Length=58.31 Units=m
New Line.16284_13135375 Bus1=16284-11063987.1.2.3 Bus2=16284-11060829.1.2.3 LineCode=CND_M30_33_3F Length=32.13 Units=m
New Line.16284_13135376 Bus1=16284-11060829.1.2.3 Bus2=16284-11071336.1.2.3 LineCode=CND_M30_33_3F Length=30.71 Units=m
New Line.16284_13135378 Bus1=16284-11069788.1.2.3 Bus2=16284-11062347.1.2.3 LineCode=CND_M30_40_3F Length=31.21 Units=m
New Line.16284_13135725 Bus1=16284-11071976.1 Bus2=16284-11063419.1 LineCode=CND_M10_89_1F Length=65.55 Units=m
New Line.16284_13135726 Bus1=16284-11064802c.1 Bus2=16284-11069058.1 LineCode=CND_M10_89_1F Length=79.44 Units=m
New Line.16284_13135731 Bus1=16284-11067638.1 Bus2=16284-11071975.1 LineCode=CND_M10_89_1F Length=99.37 Units=m
New Line.16284_13135733 Bus1=16284-11071978.1 Bus2=16284-11064802.1 LineCode=CND_M10_89_1F Length=114.68 Units=m
New Line.16284_13135734 Bus1=16284-11070526.1 Bus2=16284-11071978.1 LineCode=CND_M10_89_1F Length=107.70 Units=m
New Line.16284_13135735 Bus1=16284-11064803.1 Bus2=16284-11070526.1 LineCode=CND_M10_89_1F Length=94.66 Units=m
New Line.16284_13135736 Bus1=16284-11061523.1 Bus2=16284-11064803.1 LineCode=CND_M10_89_1F Length=104.57 Units=m
New Line.16284_13135740 Bus1=16284-11070459.1 Bus2=16284-11065934.1 LineCode=CND_M10_89_1F Length=113.88 Units=m
New Line.16284_13135744 Bus1=16284-11070460.1 Bus2=16284-11067641.1 LineCode=CND_M10_89_1F Length=107.97 Units=m
New Line.16284_13135748 Bus1=16284-11061530.1 Bus2=16284-11064805.1 LineCode=CND_M10_89_1F Length=90.58 Units=m
New Line.16284_13135749 Bus1=16284-11064805.1 Bus2=16284-11064804.1 LineCode=CND_M10_89_1F Length=102.51 Units=m
New Line.16284_13135754 Bus1=16284-11067636.1 Bus2=16284-11067642.1 LineCode=CND_M10_89_1F Length=101.55 Units=m
New Line.16284_13135755 Bus1=16284-11061520.1 Bus2=16284-11067636.1 LineCode=CND_M10_89_1F Length=105.33 Units=m
New Line.16284_13135756 Bus1=16284-11061531.1 Bus2=16284-11061520.1 LineCode=CND_M10_89_1F Length=110.96 Units=m
New Line.16284_13135757 Bus1=16284-11064797.1 Bus2=16284-11061531.1 LineCode=CND_M10_89_1F Length=97.20 Units=m
New Line.16284_13135758 Bus1=16284-11065927.1 Bus2=16284-11064797.1 LineCode=CND_M10_89_1F Length=97.48 Units=m
New Line.16284_13135761 Bus1=16284-11063127.1 Bus2=16284-11065925.1 LineCode=CND_M10_89_1F Length=119.37 Units=m
New Line.16284_13135762 Bus1=16284-11067502.1 Bus2=16284-11063127.1 LineCode=CND_M10_89_1F Length=93.82 Units=m
New Line.16284_13135763 Bus1=16284-11064809.1 Bus2=16284-11067502.1 LineCode=CND_M10_89_1F Length=110.34 Units=m
New Line.16284_13135764 Bus1=16284-11070463.1 Bus2=16284-11064809.1 LineCode=CND_M10_89_1F Length=102.96 Units=m
New Line.16284_13135765 Bus1=16284-11064810.1 Bus2=16284-11070463.1 LineCode=CND_M10_89_1F Length=104.52 Units=m
New Line.16284_13135766 Bus1=16284-11061535.1 Bus2=16284-11063121.1 LineCode=CND_M10_89_1F Length=64.93 Units=m
New Line.16284_13135767 Bus1=16284-11063121.1 Bus2=16284-11064810.1 LineCode=CND_M10_89_1F Length=104.58 Units=m
New Line.16284_13135636 Bus1=16284-11071995.1 Bus2=16284-11063161.1 LineCode=CND_M10_89_1F Length=113.74 Units=m
New Line.16284_13135637 Bus1=16284-11070668.1 Bus2=16284-11071995.1 LineCode=CND_M10_89_1F Length=110.51 Units=m
New Line.16284_13135638 Bus1=16284-11070539.1 Bus2=16284-11070668.1 LineCode=CND_M10_89_1F Length=113.61 Units=m
New Line.16284_13135642 Bus1=16284-11071996c.1 Bus2=16284-11071997.1 LineCode=CND_M10_89_1F Length=115.65 Units=m
New Line.16284_13135645 Bus1=16284-11067512.1 Bus2=16284-11068985.1 LineCode=CND_M10_89_1F Length=102.16 Units=m
New Line.16284_13135583 Bus1=16284-11060769.1.2.3 Bus2=16284-11065916.1.2.3 LineCode=CND_M30_40_3F Length=34.39 Units=m
New Line.16284_13135584 Bus1=16284-11065916.1.2.3 Bus2=16284-11064508.1.2.3 LineCode=CND_M30_40_3F Length=92.03 Units=m
New Line.16284_13135585 Bus1=16284-11065916c.1.2.3 Bus2=16284-11066838.1.2.3 LineCode=CND_M30_89_3F Length=46.47 Units=m
New Line.16284_13135588 Bus1=16284-11066758.1.2.3 Bus2=16284-11064742.1.2.3 LineCode=CND_M30_40_3F Length=41.02 Units=m
New Line.16284_13135602 Bus1=16284-11061512c.1.2.3 Bus2=16284-11064581.1.2.3 LineCode=CND_M30_40_3F Length=21.94 Units=m
New Line.16284_13135623 Bus1=16284-11070061.1 Bus2=16284-11070524.1 LineCode=CND_M10_89_1F Length=81.65 Units=m
New Line.16284_13135624 Bus1=16284-11070524c.1 Bus2=16284-11065923.1 LineCode=CND_M10_89_1F Length=112.87 Units=m
New Line.16284_13135628 Bus1=16284-11061518.1 Bus2=16284-11065921.1 LineCode=CND_M10_89_1F Length=108.07 Units=m
New Line.16284_13135629 Bus1=16284-11065921.1 Bus2=16284-11061578.1 LineCode=CND_M10_89_1F Length=114.23 Units=m
New Line.16284_13135632 Bus1=16284-11063139.1 Bus2=16284-11069081.1 LineCode=CND_M10_89_1F Length=109.09 Units=m
New Line.16284_13135633 Bus1=16284-11069081.1 Bus2=16284-11063162.1 LineCode=CND_M10_89_1F Length=114.73 Units=m
New Line.16284_13135634 Bus1=16284-11063162.1 Bus2=16284-11065952.1 LineCode=CND_M10_89_1F Length=112.56 Units=m
New Line.16284_13135503 Bus1=16284-11071957.1 Bus2=16284-11068974.1 LineCode=CND_M10_89_1F Length=117.81 Units=m
New Line.16284_13135504 Bus1=16284-11063105.1 Bus2=16284-11070516.1 LineCode=CND_M10_89_1F Length=117.81 Units=m
New Line.16284_13135505 Bus1=16284-11070516.1 Bus2=16284-11071957.1 LineCode=CND_M10_89_1F Length=117.12 Units=m
New Line.16284_13135507 Bus1=16284-11067494.1 Bus2=16284-11070515.1 LineCode=CND_M10_89_1F Length=104.31 Units=m
New Line.16284_13135508 Bus1=16284-11070515.1 Bus2=16284-11063105.1 LineCode=CND_M10_89_1F Length=121.63 Units=m
New Line.16284_13135510 Bus1=16284-11064871.1 Bus2=16284-11068973.1 LineCode=CND_M10_89_1F Length=108.17 Units=m
New Line.16284_13135513 Bus1=16284-11063104.1 Bus2=16284-11068972.1 LineCode=CND_M10_89_1F Length=107.73 Units=m
...
